
#======================================================================
# CRYSTAL DATA
#----------------------------------------------------------------------
data_VESTA_phase_1

_chemical_name_common                  'cif2pos.py                            '
_cell_length_a                         10.150200
_cell_length_b                         10.150200
_cell_length_c                         34.938400
_cell_angle_alpha                      90.000099
_cell_angle_beta                       90.000000
_cell_angle_gamma                      119.999901
_cell_volume                           3117.333536
_space_group_name_H-M_alt              'P 1'
_space_group_IT_number                 1

loop_
_space_group_symop_operation_xyz
   'x, y, z'

loop_
   _atom_site_label
   _atom_site_occupancy
   _atom_site_fract_x
   _atom_site_fract_y
   _atom_site_fract_z
   _atom_site_adp_type
   _atom_site_U_iso_or_equiv
   _atom_site_type_symbol
   Mo1        1.0     0.166861     0.000076     0.609788    Uiso  ? Mo
   Mo2        1.0     0.166946     0.500137     0.609757    Uiso  ? Mo
   Mo3        1.0     0.666898     0.000137     0.609746    Uiso  ? Mo
   Mo4        1.0     0.666808     0.500132     0.609796    Uiso  ? Mo
   Mo5        1.0     0.333600     0.333539     0.609752    Uiso  ? Mo
   Mo6        1.0     0.333728     0.833563     0.609777    Uiso  ? Mo
   Mo7        1.0     0.833672     0.333526     0.609820    Uiso  ? Mo
   Mo8        1.0     0.833602     0.833470     0.609744    Uiso  ? Mo
   Mo9        1.0     0.000149     0.166667     0.609768    Uiso  ? Mo
   Mo10       1.0     0.000314     0.666816     0.609803    Uiso  ? Mo
   Mo11       1.0     0.500287     0.166907     0.609784    Uiso  ? Mo
   Mo12       1.0     0.500203     0.666746     0.609737    Uiso  ? Mo
   Si1        1.0     0.166916     0.166802     0.696008    Uiso  ? Si
   Si2        1.0     0.166928     0.666817     0.696011    Uiso  ? Si
   Si3        1.0     0.666882     0.166789     0.696013    Uiso  ? Si
   Si4        1.0     0.666937     0.666818     0.696006    Uiso  ? Si
   Si5        1.0     0.167652     0.167397     0.523676    Uiso  ? Si
   Si6        1.0     0.167521     0.667357     0.523646    Uiso  ? Si
   Si7        1.0     0.667371     0.167579     0.523637    Uiso  ? Si
   Si8        1.0     0.667461     0.667228     0.523554    Uiso  ? Si
   Si9        1.0     0.333602     0.000151     0.696015    Uiso  ? Si
   Si10       1.0     0.333576     0.500133     0.696008    Uiso  ? Si
   Si11       1.0     0.833579     0.000129     0.696004    Uiso  ? Si
   Si12       1.0     0.833556     0.500123     0.696021    Uiso  ? Si
   Si13       1.0     0.332997     0.000368     0.523656    Uiso  ? Si
   Si14       1.0     0.333078     0.499837     0.523376    Uiso  ? Si
   Si15       1.0     0.832736    -0.000048     0.523440    Uiso  ? Si
   Si16       1.0     0.832858     0.500166     0.523790    Uiso  ? Si
   Si17       1.0     0.000257     0.333450     0.696016    Uiso  ? Si
   Si18       1.0     0.000264     0.833459     0.696010    Uiso  ? Si
   Si19       1.0     0.500236     0.333479     0.696011    Uiso  ? Si
   Si20       1.0     0.500254     0.833473     0.696004    Uiso  ? Si
   Si21       1.0     0.000329     0.332885     0.523618    Uiso  ? Si
   Si22       1.0     0.000296     0.832878     0.523506    Uiso  ? Si
   Si23       1.0     0.500060     0.332997     0.523454    Uiso  ? Si
   Si24       1.0     0.500312     0.832780     0.523467    Uiso  ? Si
   N1         1.0     0.167081     0.167015     0.573904    Uiso  ? N
   N2         1.0     0.167317     0.667231     0.573842    Uiso  ? N
   N3         1.0     0.667458     0.167496     0.573851    Uiso  ? N
   N4         1.0     0.667252     0.667114     0.573832    Uiso  ? N
   N5         1.0     0.166886     0.166802     0.645726    Uiso  ? N
   N6         1.0     0.167039     0.666861     0.645725    Uiso  ? N
   N7         1.0     0.666987     0.166870     0.645731    Uiso  ? N
   N8         1.0     0.666919     0.666864     0.645722    Uiso  ? N
   N9         1.0     0.166916     0.000131     0.710570    Uiso  ? N
   N10        1.0     0.166891     0.500115     0.710560    Uiso  ? N
   N11        1.0     0.666917     0.000130     0.710560    Uiso  ? N
   N12        1.0     0.666905     0.500149     0.710570    Uiso  ? N
   N13        1.0     0.166223     0.000243     0.509399    Uiso  ? N
   N14        1.0     0.165961     0.500240     0.509097    Uiso  ? N
   N15        1.0     0.665904     0.000578     0.509308    Uiso  ? N
   N16        1.0     0.666413     0.500205     0.509327    Uiso  ? N
   N17        1.0     0.333337     0.000180     0.573878    Uiso  ? N
   N18        1.0     0.333126     0.500154     0.573738    Uiso  ? N
   N19        1.0     0.833124     0.000044     0.573762    Uiso  ? N
   N20        1.0     0.833293     0.500089     0.573930    Uiso  ? N
   N21        1.0     0.333590     0.000161     0.645729    Uiso  ? N
   N22        1.0     0.333530     0.500145     0.645704    Uiso  ? N
   N23        1.0     0.833506     0.000093     0.645709    Uiso  ? N
   N24        1.0     0.833573     0.500160     0.645747    Uiso  ? N
   N25        1.0     0.333572     0.333467     0.710561    Uiso  ? N
   N26        1.0     0.333579     0.833468     0.710561    Uiso  ? N
   N27        1.0     0.833563     0.333460     0.710574    Uiso  ? N
   N28        1.0     0.833623     0.833492     0.710565    Uiso  ? N
   N29        1.0     0.334119     0.333869     0.509361    Uiso  ? N
   N30        1.0     0.334404     0.834423     0.509249    Uiso  ? N
   N31        1.0     0.834651     0.334667     0.509076    Uiso  ? N
   N32        1.0     0.834453     0.834103     0.509282    Uiso  ? N
   N33        1.0     0.000219     0.333138     0.573820    Uiso  ? N
   N34        1.0     0.000279     0.832935     0.573802    Uiso  ? N
   N35        1.0     0.500321     0.333192     0.573806    Uiso  ? N
   N36        1.0     0.500262     0.833118     0.573781    Uiso  ? N
   N37        1.0     0.000294     0.333417     0.645723    Uiso  ? N
   N38        1.0     0.000236     0.833413     0.645725    Uiso  ? N
   N39        1.0     0.500211     0.333490     0.645726    Uiso  ? N
   N40        1.0     0.500291     0.833444     0.645702    Uiso  ? N
   N41        1.0     0.000242     0.166792     0.710560    Uiso  ? N
   N42        1.0     0.000242     0.666800     0.710575    Uiso  ? N
   N43        1.0     0.500230     0.166804     0.710565    Uiso  ? N
   N44        1.0     0.500238     0.666807     0.710563    Uiso  ? N
   N45        1.0     0.500170     0.166042     0.509289    Uiso  ? N
   N46        1.0     0.500376     0.665842     0.509217    Uiso  ? N
   N47        1.0     0.000259     0.165932     0.509281    Uiso  ? N
   N48        1.0     0.000097     0.665476     0.509187    Uiso  ? N
   Ni1        1.0    -0.015954    -0.015764     0.353795    Uiso  ? Ni
   Ni2        1.0     0.001153     0.503123     0.351395    Uiso  ? Ni
   Ni3        1.0     0.502996    -0.000038     0.349741    Uiso  ? Ni
   Ni4        1.0     0.496348     0.502024     0.349863    Uiso  ? Ni
   Ni5        1.0    -0.006402     0.001064     0.441011    Uiso  ? Ni
   Ni6        1.0    -0.001223     0.499370     0.440881    Uiso  ? Ni
   Ni7        1.0     0.501126    -0.006224     0.441092    Uiso  ? Ni
   Ni8        1.0     0.515006     0.517380     0.436601    Uiso  ? Ni
   Ni9        1.0     0.332580     0.167188     0.395280    Uiso  ? Ni
   Ni10       1.0     0.354533     0.676827     0.394860    Uiso  ? Ni
   Ni11       1.0     0.820943     0.144034     0.395070    Uiso  ? Ni
   Ni12       1.0     0.831031     0.669227     0.395399    Uiso  ? Ni
   Te1        1.0     0.164470     0.332331     0.395115    Uiso  ? Te
   Te2        1.0     0.167770     0.834380     0.396295    Uiso  ? Te
   Te3        1.0     0.665944     0.333034     0.393985    Uiso  ? Te
   O1         1.0     0.317205     0.324594     0.362345    Uiso  ? O
   O2         1.0     0.318160     0.824665     0.362865    Uiso  ? O
   O3         1.0     0.821714     0.323961     0.363323    Uiso  ? O
   O4         1.0     0.816220     0.808513     0.365474    Uiso  ? O
   O5         1.0     0.174744     0.495196     0.363173    Uiso  ? O
   O6         1.0     0.170861     0.991976     0.363847    Uiso  ? O
   O7         1.0     0.673839     0.493095     0.361300    Uiso  ? O
   O8         1.0     0.681360     0.011971     0.357930    Uiso  ? O
   O9         1.0     0.003213     0.174851     0.363418    Uiso  ? O
   O10        1.0    -0.003347     0.680593     0.364591    Uiso  ? O
   O11        1.0     0.504268     0.178503     0.362138    Uiso  ? O
   O12        1.0     0.489626     0.671549     0.357980    Uiso  ? O
   O13        1.0     0.001919     0.322465     0.426896    Uiso  ? O
   O14        1.0     0.007849     0.826271     0.428964    Uiso  ? O
   O15        1.0     0.507987     0.329849     0.426304    Uiso  ? O
   O16        1.0     0.490651     0.815547     0.430724    Uiso  ? O
   O17        1.0     0.173837     0.180740     0.427698    Uiso  ? O
   O18        1.0     0.177466     0.679240     0.426767    Uiso  ? O
   O19        1.0     0.673317     0.180252     0.426822    Uiso  ? O
   O20        1.0     0.693281     0.684490     0.425437    Uiso  ? O
   O21        1.0     0.322544     0.494537     0.426651    Uiso  ? O
   O22        1.0     0.322635     0.995636     0.427787    Uiso  ? O
   O23        1.0     0.820332     0.501982     0.425622    Uiso  ? O
   O24        1.0     0.822723     0.006892     0.430936    Uiso  ? O
