
#======================================================================
# CRYSTAL DATA
#----------------------------------------------------------------------
data_VESTA_phase_1

_chemical_name_common                  'cif2pos.py                            '
_cell_length_a                         10.150200
_cell_length_b                         10.150200
_cell_length_c                         34.938400
_cell_angle_alpha                      90.000099
_cell_angle_beta                       90.000000
_cell_angle_gamma                      119.999901
_cell_volume                           3117.333536
_space_group_name_H-M_alt              'P 1'
_space_group_IT_number                 1

loop_
_space_group_symop_operation_xyz
   'x, y, z'

loop_
   _atom_site_label
   _atom_site_occupancy
   _atom_site_fract_x
   _atom_site_fract_y
   _atom_site_fract_z
   _atom_site_adp_type
   _atom_site_U_iso_or_equiv
   _atom_site_type_symbol
   Mo1        1.0     0.165357     0.001946     0.607946    Uiso  ? Mo
   Mo2        1.0     0.167315     0.503907     0.608360    Uiso  ? Mo
   Mo3        1.0     0.667309     0.004548     0.608268    Uiso  ? Mo
   Mo4        1.0     0.664671     0.501878     0.607901    Uiso  ? Mo
   Mo5        1.0     0.334936     0.336990     0.607948    Uiso  ? Mo
   Mo6        1.0     0.332500     0.837189     0.608199    Uiso  ? Mo
   Mo7        1.0     0.834512     0.336603     0.607966    Uiso  ? Mo
   Mo8        1.0     0.832436     0.836296     0.608369    Uiso  ? Mo
   Mo9        1.0     0.000687     0.168937     0.608272    Uiso  ? Mo
   Mo10       1.0    -0.000912     0.668110     0.608221    Uiso  ? Mo
   Mo11       1.0     0.499880     0.171953     0.607572    Uiso  ? Mo
   Mo12       1.0     0.499902     0.671564     0.608214    Uiso  ? Mo
   Si1        1.0     0.166712     0.169532     0.694282    Uiso  ? Si
   Si2        1.0     0.166390     0.669570     0.694421    Uiso  ? Si
   Si3        1.0     0.666542     0.169725     0.694191    Uiso  ? Si
   Si4        1.0     0.666432     0.669616     0.694372    Uiso  ? Si
   Si5        1.0     0.178168     0.179386     0.520770    Uiso  ? Si
   Si6        1.0     0.165554     0.668814     0.522625    Uiso  ? Si
   Si7        1.0     0.662856     0.169419     0.521039    Uiso  ? Si
   Si8        1.0     0.668327     0.666527     0.521206    Uiso  ? Si
   Si9        1.0     0.333109     0.002979     0.694153    Uiso  ? Si
   Si10       1.0     0.333274     0.503064     0.694408    Uiso  ? Si
   Si11       1.0     0.833320     0.003039     0.694432    Uiso  ? Si
   Si12       1.0     0.832995     0.502636     0.694273    Uiso  ? Si
   Si13       1.0     0.337795     0.006863     0.520765    Uiso  ? Si
   Si14       1.0     0.331565     0.498212     0.521444    Uiso  ? Si
   Si15       1.0     0.834607     0.003489     0.522798    Uiso  ? Si
   Si16       1.0     0.821499     0.501275     0.520720    Uiso  ? Si
   Si17       1.0     0.000082     0.336209     0.694327    Uiso  ? Si
   Si18       1.0    -0.000366     0.835943     0.694309    Uiso  ? Si
   Si19       1.0     0.499791     0.336200     0.695127    Uiso  ? Si
   Si20       1.0     0.499845     0.836544     0.694397    Uiso  ? Si
   Si21       1.0    -0.000469     0.334122     0.522153    Uiso  ? Si
   Si22       1.0     0.000659     0.834323     0.522173    Uiso  ? Si
   Si23       1.0     0.499915     0.834374     0.522323    Uiso  ? Si
   N1         1.0     0.167384     0.169647     0.572317    Uiso  ? N
   N2         1.0     0.166434     0.669723     0.573061    Uiso  ? N
   N3         1.0     0.668826     0.171882     0.572168    Uiso  ? N
   N4         1.0     0.667252     0.672235     0.572573    Uiso  ? N
   N5         1.0     0.166660     0.168944     0.643943    Uiso  ? N
   N6         1.0     0.166367     0.669898     0.644096    Uiso  ? N
   N7         1.0     0.667201     0.170767     0.643821    Uiso  ? N
   N8         1.0     0.666134     0.670361     0.644063    Uiso  ? N
   N9         1.0     0.166415     0.002653     0.708819    Uiso  ? N
   N10        1.0     0.166512     0.503021     0.708960    Uiso  ? N
   N11        1.0     0.666703     0.003182     0.708884    Uiso  ? N
   N12        1.0     0.666971     0.503386     0.709252    Uiso  ? N
   N13        1.0     0.165001     0.002566     0.507581    Uiso  ? N
   N14        1.0     0.161724     0.503383     0.507850    Uiso  ? N
   N15        1.0     0.668992     0.000518     0.508821    Uiso  ? N
   N16        1.0     0.676071     0.517493     0.503931    Uiso  ? N
   N17        1.0     0.331372     0.003104     0.572059    Uiso  ? N
   N18        1.0     0.332437     0.504951     0.572684    Uiso  ? N
   N19        1.0     0.833395     0.003136     0.573172    Uiso  ? N
   N20        1.0     0.832127     0.502042     0.572257    Uiso  ? N
   N21        1.0     0.332610     0.003429     0.643788    Uiso  ? N
   N22        1.0     0.333622     0.504188     0.644091    Uiso  ? N
   N23        1.0     0.833369     0.003281     0.644130    Uiso  ? N
   N24        1.0     0.833070     0.502224     0.643923    Uiso  ? N
   N25        1.0     0.332682     0.336261     0.709262    Uiso  ? N
   N26        1.0     0.332991     0.836326     0.708869    Uiso  ? N
   N27        1.0     0.833268     0.336091     0.708831    Uiso  ? N
   N28        1.0     0.833153     0.836307     0.708953    Uiso  ? N
   N29        1.0     0.324594     0.341348     0.504509    Uiso  ? N
   N30        1.0     0.331249     0.831547     0.508601    Uiso  ? N
   N31        1.0     0.835454     0.338064     0.507350    Uiso  ? N
   N32        1.0     0.838537     0.841735     0.508039    Uiso  ? N
   N33        1.0     0.001199     0.335461     0.572609    Uiso  ? N
   N34        1.0    -0.001297     0.833998     0.572602    Uiso  ? N
   N35        1.0     0.499735     0.337544     0.576806    Uiso  ? N
   N36        1.0     0.499917     0.837568     0.572817    Uiso  ? N
   N37        1.0     0.000892     0.336202     0.644066    Uiso  ? N
   N38        1.0    -0.001094     0.835111     0.644054    Uiso  ? N
   N39        1.0     0.499868     0.336457     0.645143    Uiso  ? N
   N40        1.0     0.499865     0.838050     0.644139    Uiso  ? N
   N41        1.0     0.000076     0.169536     0.708910    Uiso  ? N
   N42        1.0    -0.000388     0.669268     0.708904    Uiso  ? N
   N43        1.0     0.499795     0.168916     0.709151    Uiso  ? N
   N44        1.0     0.499878     0.669855     0.708960    Uiso  ? N
   N45        1.0     0.500715     0.142584     0.501781    Uiso  ? N
   N46        1.0     0.499748     0.668416     0.508540    Uiso  ? N
   N47        1.0     0.999321     0.166846     0.508306    Uiso  ? N
   N48        1.0     0.000323     0.666928     0.508105    Uiso  ? N
   Ni1        1.0    -0.002818    -0.004856     0.355120    Uiso  ? Ni
   Ni2        1.0     0.010279     0.501059     0.352851    Uiso  ? Ni
   Ni3        1.0     0.502333    -0.013543     0.354048    Uiso  ? Ni
   Ni4        1.0     0.494041     0.498274     0.355041    Uiso  ? Ni
   Ni5        1.0    -0.000534    -0.007517     0.451397    Uiso  ? Ni
   Ni6        1.0    -0.007665     0.494030     0.450642    Uiso  ? Ni
   Ni7        1.0     0.506079     0.005488     0.450821    Uiso  ? Ni
   Ni8        1.0     0.498339     0.467811     0.458665    Uiso  ? Ni
   Ni9        1.0     0.333087     0.158048     0.396734    Uiso  ? Ni
   Ni10       1.0     0.334673     0.661767     0.399121    Uiso  ? Ni
   Ni11       1.0     0.837291     0.163672     0.397564    Uiso  ? Ni
   Ni12       1.0     0.829320     0.659669     0.397695    Uiso  ? Ni
   Te1        1.0     0.170218     0.329214     0.400906    Uiso  ? Te
   Te2        1.0     0.163528     0.825480     0.398247    Uiso  ? Te
   Te3        1.0     0.668941     0.328615     0.393880    Uiso  ? Te
   Te4        1.0     0.666666     0.825269     0.400865    Uiso  ? Te
   O1         1.0     0.316470     0.308820     0.366809    Uiso  ? O
   O2         1.0     0.315103     0.817613     0.365263    Uiso  ? O
   O3         1.0     0.824820     0.322275     0.362383    Uiso  ? O
   O4         1.0     0.817187     0.820027     0.366400    Uiso  ? O
   O5         1.0     0.181440     0.485272     0.365929    Uiso  ? O
   O6         1.0     0.180630    -0.001109     0.366661    Uiso  ? O
   O7         1.0     0.671796     0.488069     0.362755    Uiso  ? O
   O8         1.0     0.686771    -0.002578     0.367568    Uiso  ? O
   O9         1.0    -0.000386     0.176432     0.368224    Uiso  ? O
   O10        1.0     0.006564     0.680670     0.364070    Uiso  ? O
   O11        1.0     0.507073     0.171703     0.362564    Uiso  ? O
   O12        1.0     0.508393     0.684971     0.365177    Uiso  ? O
   O13        1.0    -0.002303     0.318405     0.428909    Uiso  ? O
   O14        1.0     0.004032     0.820117     0.429339    Uiso  ? O
   O15        1.0     0.498621     0.305570     0.425538    Uiso  ? O
   O16        1.0     0.504818     0.827059     0.429711    Uiso  ? O
   O17        1.0     0.172599     0.169695     0.429990    Uiso  ? O
   O18        1.0     0.169734     0.672105     0.429666    Uiso  ? O
   O19        1.0     0.687701     0.176820     0.425378    Uiso  ? O
   O20        1.0     0.664705     0.664054     0.429865    Uiso  ? O
   O21        1.0     0.327450     0.487552     0.430318    Uiso  ? O
   O22        1.0     0.320891    -0.002602     0.427161    Uiso  ? O
   O23        1.0     0.815534     0.485071     0.427318    Uiso  ? O
   O24        1.0     0.822424     0.990723     0.430914    Uiso  ? O
