
#======================================================================
# CRYSTAL DATA
#----------------------------------------------------------------------
data_VESTA_phase_1

_chemical_name_common                  'cif2pos.py                            '
_cell_length_a                         10.150200
_cell_length_b                         10.150200
_cell_length_c                         34.938400
_cell_angle_alpha                      90.000099
_cell_angle_beta                       90.000000
_cell_angle_gamma                      119.999901
_cell_volume                           3117.333536
_space_group_name_H-M_alt              'P 1'
_space_group_IT_number                 1

loop_
_space_group_symop_operation_xyz
   'x, y, z'

loop_
   _atom_site_label
   _atom_site_occupancy
   _atom_site_fract_x
   _atom_site_fract_y
   _atom_site_fract_z
   _atom_site_adp_type
   _atom_site_U_iso_or_equiv
   _atom_site_type_symbol
   Mo1        1.0     0.167391     0.000652     0.609116    Uiso  ? Mo
   Mo2        1.0     0.166467     0.500692     0.609089    Uiso  ? Mo
   Mo3        1.0     0.666956     0.999691     0.609044    Uiso  ? Mo
   Mo4        1.0     0.666817     0.500554     0.609106    Uiso  ? Mo
   Mo5        1.0     0.333591     0.333813     0.609098    Uiso  ? Mo
   Mo6        1.0     0.333717     0.833000     0.609043    Uiso  ? Mo
   Mo7        1.0     0.833079     0.333677     0.609089    Uiso  ? Mo
   Mo8        1.0     0.833949     0.834531     0.609122    Uiso  ? Mo
   Mo9        1.0     0.000153     0.167134     0.609103    Uiso  ? Mo
   Mo10       1.0     0.000258     0.667233     0.609072    Uiso  ? Mo
   Mo11       1.0     0.500243     0.166710     0.609082    Uiso  ? Mo
   Mo12       1.0     0.500161     0.666468     0.609374    Uiso  ? Mo
   Si1        1.0     0.166872     0.166946     0.695398    Uiso  ? Si
   Si2        1.0     0.166792     0.666899     0.695415    Uiso  ? Si
   Si3        1.0     0.666748     0.166838     0.695347    Uiso  ? Si
   Si4        1.0     0.666870     0.666973     0.695457    Uiso  ? Si
   Si5        1.0     0.168839     0.170814     0.522842    Uiso  ? Si
   Si6        1.0     0.168959     0.669605     0.522656    Uiso  ? Si
   Si7        1.0     0.665543     0.167250     0.522812    Uiso  ? Si
   Si8        1.0     0.673482     0.682581     0.522995    Uiso  ? Si
   Si9        1.0     0.333483     0.000270     0.695334    Uiso  ? Si
   Si10       1.0     0.333390     0.500193     0.695426    Uiso  ? Si
   Si11       1.0     0.833514     0.000377     0.695426    Uiso  ? Si
   Si12       1.0     0.833408     0.500262     0.695374    Uiso  ? Si
   Si13       1.0     0.336416     0.001505     0.522840    Uiso  ? Si
   Si14       1.0     0.326726     0.505888     0.522905    Uiso  ? Si
   Si15       1.0     0.833115     0.002146     0.522700    Uiso  ? Si
   Si16       1.0     0.831737     0.503767     0.522740    Uiso  ? Si
   Si17       1.0     0.000115     0.333606     0.695376    Uiso  ? Si
   Si18       1.0     0.000130     0.833612     0.695387    Uiso  ? Si
   Si19       1.0     0.500127     0.333585     0.695409    Uiso  ? Si
   Si20       1.0     0.500146     0.833519     0.695434    Uiso  ? Si
   Si21       1.0     0.995559     0.332374     0.523029    Uiso  ? Si
   Si22       1.0     0.005662     0.836971     0.522998    Uiso  ? Si
   Si23       1.0     0.500395     0.338058     0.522972    Uiso  ? Si
   Si24       1.0     0.503635     0.820246     0.522820    Uiso  ? Si
   N1         1.0     0.167573     0.168074     0.573147    Uiso  ? N
   N2         1.0     0.167579     0.667864     0.573071    Uiso  ? N
   N3         1.0     0.666849     0.166582     0.573187    Uiso  ? N
   N4         1.0     0.666888     0.668298     0.573181    Uiso  ? N
   N5         1.0     0.167066     0.167200     0.645067    Uiso  ? N
   N6         1.0     0.166893     0.667078     0.645103    Uiso  ? N
   N7         1.0     0.666735     0.166756     0.645051    Uiso  ? N
   N8         1.0     0.667333     0.667269     0.645144    Uiso  ? N
   N9         1.0     0.166830     0.000251     0.709925    Uiso  ? N
   N10        1.0     0.166707     0.500293     0.709975    Uiso  ? N
   N11        1.0     0.666755     0.000273     0.709966    Uiso  ? N
   N12        1.0     0.666801     0.500237     0.709961    Uiso  ? N
   N13        1.0     0.170505     0.004163     0.508724    Uiso  ? N
   N14        1.0     0.156889     0.498319     0.508019    Uiso  ? N
   N15        1.0     0.664881     0.999939     0.508459    Uiso  ? N
   N16        1.0     0.664860     0.507844     0.508654    Uiso  ? N
   N17        1.0     0.333782     0.999631     0.573192    Uiso  ? N
   N18        1.0     0.333157     0.500979     0.573136    Uiso  ? N
   N19        1.0     0.833092     0.000523     0.573115    Uiso  ? N
   N20        1.0     0.832611     0.500965     0.573091    Uiso  ? N
   N21        1.0     0.333714     0.000087     0.645059    Uiso  ? N
   N22        1.0     0.332906     0.499949     0.645139    Uiso  ? N
   N23        1.0     0.833540     0.000446     0.645128    Uiso  ? N
   N24        1.0     0.833386     0.500463     0.645071    Uiso  ? N
   N25        1.0     0.333501     0.333584     0.709968    Uiso  ? N
   N26        1.0     0.333510     0.833594     0.709955    Uiso  ? N
   N27        1.0     0.833395     0.333539     0.709930    Uiso  ? N
   N28        1.0     0.833513     0.833723     0.709976    Uiso  ? N
   N29        1.0     0.334986     0.340302     0.508615    Uiso  ? N
   N30        1.0     0.338890     0.834727     0.508490    Uiso  ? N
   N31        1.0     0.831095     0.335666     0.508695    Uiso  ? N
   N32        1.0     0.844961     0.842600     0.507990    Uiso  ? N
   N33        1.0     0.999206     0.333160     0.573247    Uiso  ? N
   N34        1.0     0.001231     0.834171     0.573255    Uiso  ? N
   N35        1.0     0.500355     0.333737     0.573209    Uiso  ? N
   N36        1.0     0.500458     0.829168     0.573120    Uiso  ? N
   N37        1.0     0.999942     0.333758     0.645074    Uiso  ? N
   N38        1.0     0.000519     0.833968     0.645080    Uiso  ? N
   N39        1.0     0.500207     0.333608     0.645073    Uiso  ? N
   N40        1.0     0.500261     0.832961     0.645132    Uiso  ? N
   N41        1.0     0.000231     0.167029     0.709945    Uiso  ? N
   N42        1.0     0.000083     0.666900     0.709933    Uiso  ? N
   N43        1.0     0.500099     0.166910     0.709949    Uiso  ? N
   N44        1.0     0.500118     0.666844     0.710009    Uiso  ? N
   N45        1.0     0.500529     0.169648     0.508736    Uiso  ? N
   N46        1.0     0.000222     0.168053     0.508749    Uiso  ? N
   N47        1.0     0.001262     0.668418     0.508711    Uiso  ? N
   Ni1        1.0     0.998185     0.997260     0.351286    Uiso  ? Ni
   Ni2        1.0     0.999681     0.498541     0.350991    Uiso  ? Ni
   Ni3        1.0     0.498912     0.998262     0.350948    Uiso  ? Ni
   Ni4        1.0     0.499989     0.498749     0.351066    Uiso  ? Ni
   Ni5        1.0     0.999890     0.998438     0.443274    Uiso  ? Ni
   Ni6        1.0     0.999621     0.498128     0.443145    Uiso  ? Ni
   Ni7        1.0     0.498607     0.997339     0.443742    Uiso  ? Ni
   Ni8        1.0     0.498694     0.495228     0.442401    Uiso  ? Ni
   Ni9        1.0     0.332764     0.164687     0.395807    Uiso  ? Ni
   Ni10       1.0     0.332599     0.665066     0.396654    Uiso  ? Ni
   Ni11       1.0     0.832739     0.164665     0.396317    Uiso  ? Ni
   Ni12       1.0     0.832617     0.664548     0.396865    Uiso  ? Ni
   Te1        1.0     0.165969     0.331596     0.396080    Uiso  ? Te
   Te2        1.0     0.166005     0.831647     0.396144    Uiso  ? Te
   Te3        1.0     0.666235     0.330864     0.396076    Uiso  ? Te
   Te4        1.0     0.665549     0.831380     0.396841    Uiso  ? Te
   O1         1.0     0.318058     0.323559     0.363544    Uiso  ? O
   O2         1.0     0.318043     0.822397     0.363823    Uiso  ? O
   O3         1.0     0.818177     0.322606     0.363538    Uiso  ? O
   O4         1.0     0.816924     0.821983     0.364395    Uiso  ? O
   O5         1.0     0.175166     0.492570     0.363738    Uiso  ? O
   O6         1.0     0.174241     0.991607     0.363446    Uiso  ? O
   O7         1.0     0.675115     0.492612     0.364028    Uiso  ? O
   O8         1.0     0.673150     0.990871     0.364291    Uiso  ? O
   O9         1.0     0.005325     0.179529     0.363593    Uiso  ? O
   O10        1.0     0.004957     0.679510     0.363830    Uiso  ? O
   O11        1.0     0.506056     0.180487     0.363165    Uiso  ? O
   O12        1.0     0.505490     0.679604     0.364333    Uiso  ? O
   O13        1.0     0.005762     0.323087     0.428435    Uiso  ? O
   O14        1.0     0.005903     0.823357     0.428609    Uiso  ? O
   O15        1.0     0.505020     0.320933     0.428461    Uiso  ? O
   O16        1.0     0.505029     0.820619     0.430079    Uiso  ? O
   O17        1.0     0.174959     0.179583     0.428289    Uiso  ? O
   O18        1.0     0.174414     0.679824     0.428628    Uiso  ? O
   O19        1.0     0.673671     0.178209     0.428347    Uiso  ? O
   O20        1.0     0.673058     0.678865     0.429822    Uiso  ? O
   O21        1.0     0.318911     0.492362     0.428743    Uiso  ? O
   O22        1.0     0.318690     0.992469     0.428227    Uiso  ? O
   O23        1.0     0.817721     0.491133     0.428644    Uiso  ? O
   O24        1.0     0.818065     0.992232     0.428843    Uiso  ? O
